<?xml version="1.0" encoding="UTF-8"?>

<!-- generated on 2024-11-20 19:44:08 by Eclipse SUMO netedit Version 1.21.0
<neteditConfiguration xmlns:xsi="http://www.w3.org/2001/XMLSchema-instance" xsi:noNamespaceSchemaLocation="http://sumo.dlr.de/xsd/neteditConfiguration.xsd">

    <input>
        <sumo-net-file value="E:\DR\vs\repository\Note_4683\sumo_carla\test\test.net.xml"/>
    </input>

    <output>
        <output-file value="E:\DR\vs\repository\Note_4683\sumo_carla\test\test.net.xml"/>
    </output>

    <processing>
        <geometry.min-radius.fix.railways value="false"/>
        <geometry.max-grade.fix value="false"/>
        <offset.disable-normalization value="true"/>
        <lefthand value="0"/>
    </processing>

    <junctions>
        <no-turnarounds value="true"/>
        <junctions.corner-detail value="5"/>
        <junctions.limit-turn-speed value="5.50"/>
        <rectangular-lane-cut value="0"/>
    </junctions>

    <pedestrian>
        <walkingareas value="0"/>
    </pedestrian>

</neteditConfiguration>
-->

<net version="1.20" junctionCornerDetail="5" limitTurnSpeed="5.50" xmlns:xsi="http://www.w3.org/2001/XMLSchema-instance" xsi:noNamespaceSchemaLocation="http://sumo.dlr.de/xsd/net_file.xsd">

    <location netOffset="0.00,0.00" convBoundary="0.00,-100.00,300.00,100.00" origBoundary="-10000000000.00,-10000000000.00,10000000000.00,10000000000.00" projParameter="!"/>

    <edge id=":J1_0" function="internal">
        <lane id=":J1_0_0" index="0" speed="6.51" length="9.03" shape="95.20,13.60 94.85,11.15 93.80,9.40 92.05,8.35 89.60,8.00"/>
    </edge>
    <edge id=":J1_1" function="internal">
        <lane id=":J1_1_0" index="0" speed="13.89" length="24.00" shape="95.20,13.60 95.20,-10.40"/>
        <lane id=":J1_1_1" index="1" speed="13.89" length="24.00" shape="98.40,13.60 98.40,-10.40"/>
    </edge>
    <edge id=":J1_3" function="internal">
        <lane id=":J1_3_0" index="0" speed="9.84" length="6.30" shape="98.40,13.60 99.11,7.34"/>
    </edge>
    <edge id=":J1_17" function="internal">
        <lane id=":J1_17_0" index="0" speed="9.84" length="15.70" shape="99.11,7.34 99.15,6.95 101.40,2.20 105.15,-0.65 110.40,-1.60"/>
    </edge>
    <edge id=":J1_4" function="internal">
        <lane id=":J1_4_0" index="0" speed="6.51" length="9.03" shape="110.40,8.00 107.95,8.35 106.20,9.40 105.15,11.15 104.80,13.60"/>
    </edge>
    <edge id=":J1_5" function="internal">
        <lane id=":J1_5_0" index="0" speed="13.89" length="20.80" shape="110.40,8.00 89.60,8.00"/>
        <lane id=":J1_5_1" index="1" speed="13.89" length="20.80" shape="110.40,4.80 89.60,4.80"/>
        <lane id=":J1_5_2" index="2" speed="13.89" length="20.80" shape="110.40,1.60 89.60,1.60"/>
    </edge>
    <edge id=":J1_8" function="internal">
        <lane id=":J1_8_0" index="0" speed="9.26" length="19.35" shape="110.40,1.60 105.15,0.85 101.40,-1.40 99.15,-5.15 98.40,-10.40"/>
    </edge>
    <edge id=":J1_9" function="internal">
        <lane id=":J1_9_0" index="0" speed="6.51" length="9.03" shape="104.80,-10.40 105.15,-7.95 106.20,-6.20 107.95,-5.15 110.40,-4.80"/>
    </edge>
    <edge id=":J1_10" function="internal">
        <lane id=":J1_10_0" index="0" speed="31.95" length="24.00" shape="104.80,-10.40 104.80,13.60"/>
        <lane id=":J1_10_1" index="1" speed="31.95" length="24.00" shape="101.60,-10.40 101.60,13.60"/>
    </edge>
    <edge id=":J1_12" function="internal">
        <lane id=":J1_12_0" index="0" speed="9.26" length="5.01" shape="101.60,-10.40 100.89,-5.44"/>
    </edge>
    <edge id=":J1_18" function="internal">
        <lane id=":J1_18_0" index="0" speed="9.26" length="14.34" shape="100.89,-5.44 100.85,-5.15 98.60,-1.40 94.85,0.85 89.60,1.60"/>
    </edge>
    <edge id=":J1_13" function="internal">
        <lane id=":J1_13_0" index="0" speed="6.51" length="9.03" shape="89.60,-4.80 92.05,-5.15 93.80,-6.20 94.85,-7.95 95.20,-10.40"/>
    </edge>
    <edge id=":J1_14" function="internal">
        <lane id=":J1_14_0" index="0" speed="30.00" length="20.80" shape="89.60,-4.80 110.40,-4.80"/>
        <lane id=":J1_14_1" index="1" speed="30.00" length="20.80" shape="89.60,-1.60 110.40,-1.60"/>
    </edge>
    <edge id=":J1_16" function="internal">
        <lane id=":J1_16_0" index="0" speed="9.84" length="21.99" shape="89.60,-1.60 94.85,-0.65 98.60,2.20 100.85,6.95 101.60,13.60"/>
    </edge>
    <edge id=":J2_0" function="internal">
        <lane id=":J2_0_0" index="0" speed="6.51" length="9.03" shape="195.20,13.60 194.85,11.15 193.80,9.40 192.05,8.35 189.60,8.00"/>
    </edge>
    <edge id=":J2_1" function="internal">
        <lane id=":J2_1_0" index="0" speed="13.89" length="24.00" shape="195.20,13.60 195.20,-10.40"/>
        <lane id=":J2_1_1" index="1" speed="13.89" length="24.00" shape="198.40,13.60 198.40,-10.40"/>
    </edge>
    <edge id=":J2_3" function="internal">
        <lane id=":J2_3_0" index="0" speed="9.84" length="21.99" shape="198.40,13.60 199.15,6.95 201.40,2.20 205.15,-0.65 210.40,-1.60"/>
    </edge>
    <edge id=":J2_4" function="internal">
        <lane id=":J2_4_0" index="0" speed="6.51" length="9.03" shape="210.40,8.00 207.95,8.35 206.20,9.40 205.15,11.15 204.80,13.60"/>
    </edge>
    <edge id=":J2_5" function="internal">
        <lane id=":J2_5_0" index="0" speed="13.89" length="20.80" shape="210.40,8.00 189.60,8.00"/>
        <lane id=":J2_5_1" index="1" speed="13.89" length="20.80" shape="210.40,4.80 189.60,4.80"/>
        <lane id=":J2_5_2" index="2" speed="13.89" length="20.80" shape="210.40,1.60 189.60,1.60"/>
    </edge>
    <edge id=":J2_8" function="internal">
        <lane id=":J2_8_0" index="0" speed="9.26" length="5.01" shape="210.40,1.60 205.44,0.89"/>
    </edge>
    <edge id=":J2_17" function="internal">
        <lane id=":J2_17_0" index="0" speed="9.26" length="14.34" shape="205.44,0.89 205.15,0.85 201.40,-1.40 199.15,-5.15 198.40,-10.40"/>
    </edge>
    <edge id=":J2_9" function="internal">
        <lane id=":J2_9_0" index="0" speed="6.51" length="9.03" shape="204.80,-10.40 205.15,-7.95 206.20,-6.20 207.95,-5.15 210.40,-4.80"/>
    </edge>
    <edge id=":J2_10" function="internal">
        <lane id=":J2_10_0" index="0" speed="13.89" length="24.00" shape="204.80,-10.40 204.80,13.60"/>
        <lane id=":J2_10_1" index="1" speed="13.89" length="24.00" shape="201.60,-10.40 201.60,13.60"/>
    </edge>
    <edge id=":J2_12" function="internal">
        <lane id=":J2_12_0" index="0" speed="9.26" length="19.35" shape="201.60,-10.40 200.85,-5.15 198.60,-1.40 194.85,0.85 189.60,1.60"/>
    </edge>
    <edge id=":J2_13" function="internal">
        <lane id=":J2_13_0" index="0" speed="6.51" length="9.03" shape="189.60,-4.80 192.05,-5.15 193.80,-6.20 194.85,-7.95 195.20,-10.40"/>
    </edge>
    <edge id=":J2_14" function="internal">
        <lane id=":J2_14_0" index="0" speed="30.00" length="20.80" shape="189.60,-4.80 210.40,-4.80"/>
        <lane id=":J2_14_1" index="1" speed="30.00" length="20.80" shape="189.60,-1.60 210.40,-1.60"/>
    </edge>
    <edge id=":J2_16" function="internal">
        <lane id=":J2_16_0" index="0" speed="9.84" length="4.01" shape="189.60,-1.60 193.55,-0.89"/>
    </edge>
    <edge id=":J2_18" function="internal">
        <lane id=":J2_18_0" index="0" speed="9.84" length="17.98" shape="193.55,-0.89 194.85,-0.65 198.60,2.20 200.85,6.95 201.60,13.60"/>
    </edge>

    <edge id="-E0" from="J1" to="J0" priority="-1">
        <lane id="-E0_0" index="0" speed="13.89" length="89.60" shape="89.60,8.00 0.00,8.00"/>
        <lane id="-E0_1" index="1" speed="13.89" length="89.60" shape="89.60,4.80 0.00,4.80"/>
        <lane id="-E0_2" index="2" speed="13.89" length="89.60" shape="89.60,1.60 0.00,1.60"/>
    </edge>
    <edge id="-E1" from="J2" to="J1" priority="-1">
        <lane id="-E1_0" index="0" speed="13.89" length="79.20" shape="189.60,8.00 110.40,8.00"/>
        <lane id="-E1_1" index="1" speed="13.89" length="79.20" shape="189.60,4.80 110.40,4.80"/>
        <lane id="-E1_2" index="2" speed="13.89" length="79.20" shape="189.60,1.60 110.40,1.60"/>
    </edge>
    <edge id="-E10" from="J11" to="J2" priority="-1">
        <lane id="-E10_0" index="0" speed="13.89" length="86.40" shape="195.20,100.00 195.20,13.60"/>
        <lane id="-E10_1" index="1" speed="13.89" length="86.40" shape="198.40,100.00 198.40,13.60"/>
    </edge>
    <edge id="-E6" from="J7" to="J2" priority="-1">
        <lane id="-E6_0" index="0" speed="13.89" length="89.60" shape="300.00,8.00 210.40,8.00"/>
        <lane id="-E6_1" index="1" speed="13.89" length="89.60" shape="300.00,4.80 210.40,4.80"/>
        <lane id="-E6_2" index="2" speed="13.89" length="89.60" shape="300.00,1.60 210.40,1.60"/>
    </edge>
    <edge id="-E7" from="J8" to="J1" priority="-1">
        <lane id="-E7_0" index="0" speed="50.00" length="89.60" shape="104.80,-100.00 104.80,-10.40"/>
        <lane id="-E7_1" index="1" speed="50.00" length="89.60" shape="101.60,-100.00 101.60,-10.40"/>
    </edge>
    <edge id="-E8" from="J9" to="J1" priority="-1">
        <lane id="-E8_0" index="0" speed="13.89" length="86.40" shape="95.20,100.00 95.20,13.60"/>
        <lane id="-E8_1" index="1" speed="13.89" length="86.40" shape="98.40,100.00 98.40,13.60"/>
    </edge>
    <edge id="-E9" from="J10" to="J2" priority="-1">
        <lane id="-E9_0" index="0" speed="13.89" length="89.60" shape="204.80,-100.00 204.80,-10.40"/>
        <lane id="-E9_1" index="1" speed="13.89" length="89.60" shape="201.60,-100.00 201.60,-10.40"/>
    </edge>
    <edge id="E0" from="J0" to="J1" priority="-1">
        <lane id="E0_0" index="0" speed="30.00" length="89.60" shape="0.00,-4.80 89.60,-4.80"/>
        <lane id="E0_1" index="1" speed="30.00" length="89.60" shape="0.00,-1.60 89.60,-1.60"/>
    </edge>
    <edge id="E1" from="J1" to="J2" priority="-1">
        <lane id="E1_0" index="0" speed="30.00" length="79.20" shape="110.40,-4.80 189.60,-4.80"/>
        <lane id="E1_1" index="1" speed="30.00" length="79.20" shape="110.40,-1.60 189.60,-1.60"/>
    </edge>
    <edge id="E10" from="J2" to="J11" priority="-1">
        <lane id="E10_0" index="0" speed="13.89" length="86.40" shape="204.80,13.60 204.80,100.00"/>
        <lane id="E10_1" index="1" speed="13.89" length="86.40" shape="201.60,13.60 201.60,100.00"/>
    </edge>
    <edge id="E6" from="J2" to="J7" priority="-1">
        <lane id="E6_0" index="0" speed="30.00" length="89.60" shape="210.40,-4.80 300.00,-4.80"/>
        <lane id="E6_1" index="1" speed="30.00" length="89.60" shape="210.40,-1.60 300.00,-1.60"/>
    </edge>
    <edge id="E7" from="J1" to="J8" priority="-1">
        <lane id="E7_0" index="0" speed="13.89" length="89.60" shape="95.20,-10.40 95.20,-100.00"/>
        <lane id="E7_1" index="1" speed="13.89" length="89.60" shape="98.40,-10.40 98.40,-100.00"/>
    </edge>
    <edge id="E8" from="J1" to="J9" priority="-1">
        <lane id="E8_0" index="0" speed="13.89" length="86.40" shape="104.80,13.60 104.80,100.00"/>
        <lane id="E8_1" index="1" speed="13.89" length="86.40" shape="101.60,13.60 101.60,100.00"/>
    </edge>
    <edge id="E9" from="J2" to="J10" priority="-1">
        <lane id="E9_0" index="0" speed="13.89" length="89.60" shape="195.20,-10.40 195.20,-100.00"/>
        <lane id="E9_1" index="1" speed="13.89" length="89.60" shape="198.40,-10.40 198.40,-100.00"/>
    </edge>

    <junction id="J0" type="dead_end" x="0.00" y="0.00" incLanes="-E0_0 -E0_1 -E0_2" intLanes="" shape="0.00,0.00 0.00,9.60 0.00,0.00"/>
    <junction id="J1" type="priority" x="100.00" y="0.00" incLanes="-E8_0 -E8_1 -E1_0 -E1_1 -E1_2 -E7_0 -E7_1 E0_0 E0_1" intLanes=":J1_0_0 :J1_1_0 :J1_1_1 :J1_17_0 :J1_4_0 :J1_5_0 :J1_5_1 :J1_5_2 :J1_8_0 :J1_9_0 :J1_10_0 :J1_10_1 :J1_18_0 :J1_13_0 :J1_14_0 :J1_14_1 :J1_16_0" shape="93.60,13.60 106.40,13.60 106.84,11.38 107.40,10.60 108.18,10.04 109.18,9.71 110.40,9.60 110.40,-6.40 108.18,-6.84 107.40,-7.40 106.84,-8.18 106.51,-9.18 106.40,-10.40 93.60,-10.40 93.16,-8.18 92.60,-7.40 91.82,-6.84 90.82,-6.51 89.60,-6.40 89.60,9.60 91.82,10.04 92.60,10.60 93.16,11.38 93.49,12.38">
        <request index="0"  response="00000000000000000" foes="00000000011100000" cont="0"/>
        <request index="1"  response="00000000000000000" foes="11111000111100000" cont="0"/>
        <request index="2"  response="00000000000000000" foes="11111000111100000" cont="0"/>
        <request index="3"  response="00000110000000000" foes="11100110111100000" cont="1"/>
        <request index="4"  response="00000110000000000" foes="00000110000000000" cont="0"/>
        <request index="5"  response="00001110000001111" foes="10001110000001111" cont="0"/>
        <request index="6"  response="00001110000001111" foes="10001110000001111" cont="0"/>
        <request index="7"  response="00001110000001111" foes="10001110000001111" cont="0"/>
        <request index="8"  response="01101110000001110" foes="01101110000001110" cont="0"/>
        <request index="9"  response="00000000000000000" foes="01100000000000000" cont="0"/>
        <request index="10" response="00000000000000000" foes="11100000111111000" cont="0"/>
        <request index="11" response="00000000000000000" foes="11100000111111000" cont="0"/>
        <request index="12" response="00000000000000110" foes="11100000111100110" cont="1"/>
        <request index="13" response="00000000000000110" foes="00000000000000110" cont="0"/>
        <request index="14" response="00001111000001110" foes="00001111100001110" cont="0"/>
        <request index="15" response="00001111000001110" foes="00001111100001110" cont="0"/>
        <request index="16" response="00001110011101110" foes="00001110011101110" cont="0"/>
    </junction>
    <junction id="J10" type="dead_end" x="200.00" y="-100.00" incLanes="E9_0 E9_1" intLanes="" shape="200.00,-100.00 193.60,-100.00 200.00,-100.00"/>
    <junction id="J11" type="dead_end" x="200.00" y="100.00" incLanes="E10_0 E10_1" intLanes="" shape="200.00,100.00 206.40,100.00 200.00,100.00"/>
    <junction id="J2" type="priority" x="200.00" y="0.00" incLanes="-E10_0 -E10_1 -E6_0 -E6_1 -E6_2 -E9_0 -E9_1 E1_0 E1_1" intLanes=":J2_0_0 :J2_1_0 :J2_1_1 :J2_3_0 :J2_4_0 :J2_5_0 :J2_5_1 :J2_5_2 :J2_17_0 :J2_9_0 :J2_10_0 :J2_10_1 :J2_12_0 :J2_13_0 :J2_14_0 :J2_14_1 :J2_18_0" shape="193.60,13.60 206.40,13.60 206.84,11.38 207.40,10.60 208.18,10.04 209.18,9.71 210.40,9.60 210.40,-6.40 208.18,-6.84 207.40,-7.40 206.84,-8.18 206.51,-9.18 206.40,-10.40 193.60,-10.40 193.16,-8.18 192.60,-7.40 191.82,-6.84 190.82,-6.51 189.60,-6.40 189.60,9.60 191.82,10.04 192.60,10.60 193.16,11.38 193.49,12.38">
        <request index="0"  response="00000000011100000" foes="00000000011100000" cont="0"/>
        <request index="1"  response="11110000111100000" foes="11111000111100000" cont="0"/>
        <request index="2"  response="11110000111100000" foes="11111000111100000" cont="0"/>
        <request index="3"  response="11100110111100000" foes="11100110111100000" cont="0"/>
        <request index="4"  response="00000000000000000" foes="00000110000000000" cont="0"/>
        <request index="5"  response="00000000000000000" foes="10001110000001111" cont="0"/>
        <request index="6"  response="00000000000000000" foes="10001110000001111" cont="0"/>
        <request index="7"  response="00000000000000000" foes="10001110000001111" cont="0"/>
        <request index="8"  response="01100000000000000" foes="01101110000001110" cont="1"/>
        <request index="9"  response="01100000000000000" foes="01100000000000000" cont="0"/>
        <request index="10" response="11100000111110000" foes="11100000111111000" cont="0"/>
        <request index="11" response="11100000111110000" foes="11100000111111000" cont="0"/>
        <request index="12" response="11100000111100110" foes="11100000111100110" cont="0"/>
        <request index="13" response="00000000000000000" foes="00000000000000110" cont="0"/>
        <request index="14" response="00000000000000000" foes="00001111100001110" cont="0"/>
        <request index="15" response="00000000000000000" foes="00001111100001110" cont="0"/>
        <request index="16" response="00000000011100000" foes="00001110011101110" cont="1"/>
    </junction>
    <junction id="J7" type="dead_end" x="300.00" y="0.00" incLanes="E6_0 E6_1" intLanes="" shape="300.00,0.00 300.00,-6.40 300.00,0.00"/>
    <junction id="J8" type="dead_end" x="100.00" y="-100.00" incLanes="E7_0 E7_1" intLanes="" shape="100.00,-100.00 93.60,-100.00 100.00,-100.00"/>
    <junction id="J9" type="dead_end" x="100.00" y="100.00" incLanes="E8_0 E8_1" intLanes="" shape="100.00,100.00 106.40,100.00 100.00,100.00"/>

    <junction id=":J1_17_0" type="internal" x="99.11" y="7.34" incLanes=":J1_3_0 -E7_0 -E7_1" intLanes=":J1_5_0 :J1_5_1 :J1_5_2 :J1_8_0 :J1_9_0 :J1_10_0 :J1_10_1 :J1_14_0 :J1_14_1 :J1_16_0"/>
    <junction id=":J1_18_0" type="internal" x="100.89" y="-5.44" incLanes=":J1_12_0 -E8_0 -E8_1" intLanes=":J1_0_0 :J1_1_0 :J1_1_1 :J1_5_0 :J1_5_1 :J1_5_2 :J1_8_0 :J1_14_0 :J1_14_1 :J1_16_0"/>
    <junction id=":J2_17_0" type="internal" x="205.44" y="0.89" incLanes=":J2_8_0 E1_0 E1_1" intLanes=":J2_1_0 :J2_1_1 :J2_3_0 :J2_10_0 :J2_10_1 :J2_12_0 :J2_13_0 :J2_14_0 :J2_14_1"/>
    <junction id=":J2_18_0" type="internal" x="193.55" y="-0.89" incLanes=":J2_16_0 -E6_0 -E6_1 -E6_2" intLanes=":J2_1_0 :J2_1_1 :J2_3_0 :J2_4_0 :J2_5_0 :J2_5_1 :J2_5_2 :J2_10_0 :J2_10_1 :J2_12_0"/>

    <connection from="-E1" to="E8" fromLane="0" toLane="0" via=":J1_4_0" dir="r" state="m"/>
    <connection from="-E1" to="-E0" fromLane="0" toLane="0" via=":J1_5_0" dir="s" state="m"/>
    <connection from="-E1" to="-E0" fromLane="1" toLane="1" via=":J1_5_1" dir="s" state="m"/>
    <connection from="-E1" to="-E0" fromLane="2" toLane="2" via=":J1_5_2" dir="s" state="m"/>
    <connection from="-E1" to="E7" fromLane="2" toLane="1" via=":J1_8_0" dir="l" state="m"/>
    <connection from="-E10" to="-E1" fromLane="0" toLane="0" via=":J2_0_0" dir="r" state="m"/>
    <connection from="-E10" to="E9" fromLane="0" toLane="0" via=":J2_1_0" dir="s" state="m"/>
    <connection from="-E10" to="E9" fromLane="1" toLane="1" via=":J2_1_1" dir="s" state="m"/>
    <connection from="-E10" to="E6" fromLane="1" toLane="1" via=":J2_3_0" dir="l" state="m"/>
    <connection from="-E6" to="E10" fromLane="0" toLane="0" via=":J2_4_0" dir="r" state="M"/>
    <connection from="-E6" to="-E1" fromLane="0" toLane="0" via=":J2_5_0" dir="s" state="M"/>
    <connection from="-E6" to="-E1" fromLane="1" toLane="1" via=":J2_5_1" dir="s" state="M"/>
    <connection from="-E6" to="-E1" fromLane="2" toLane="2" via=":J2_5_2" dir="s" state="M"/>
    <connection from="-E6" to="E9" fromLane="2" toLane="1" via=":J2_8_0" dir="l" state="m"/>
    <connection from="-E7" to="E1" fromLane="0" toLane="0" via=":J1_9_0" dir="r" state="M"/>
    <connection from="-E7" to="E8" fromLane="0" toLane="0" via=":J1_10_0" dir="s" state="M"/>
    <connection from="-E7" to="E8" fromLane="1" toLane="1" via=":J1_10_1" dir="s" state="M"/>
    <connection from="-E7" to="-E0" fromLane="1" toLane="2" via=":J1_12_0" dir="l" state="m"/>
    <connection from="-E8" to="-E0" fromLane="0" toLane="0" via=":J1_0_0" dir="r" state="M"/>
    <connection from="-E8" to="E7" fromLane="0" toLane="0" via=":J1_1_0" dir="s" state="M"/>
    <connection from="-E8" to="E7" fromLane="1" toLane="1" via=":J1_1_1" dir="s" state="M"/>
    <connection from="-E8" to="E1" fromLane="1" toLane="1" via=":J1_3_0" dir="l" state="m"/>
    <connection from="-E9" to="E6" fromLane="0" toLane="0" via=":J2_9_0" dir="r" state="m"/>
    <connection from="-E9" to="E10" fromLane="0" toLane="0" via=":J2_10_0" dir="s" state="m"/>
    <connection from="-E9" to="E10" fromLane="1" toLane="1" via=":J2_10_1" dir="s" state="m"/>
    <connection from="-E9" to="-E1" fromLane="1" toLane="2" via=":J2_12_0" dir="l" state="m"/>
    <connection from="E0" to="E7" fromLane="0" toLane="0" via=":J1_13_0" dir="r" state="m"/>
    <connection from="E0" to="E1" fromLane="0" toLane="0" via=":J1_14_0" dir="s" state="m"/>
    <connection from="E0" to="E1" fromLane="1" toLane="1" via=":J1_14_1" dir="s" state="m"/>
    <connection from="E0" to="E8" fromLane="1" toLane="1" via=":J1_16_0" dir="l" state="m"/>
    <connection from="E1" to="E9" fromLane="0" toLane="0" via=":J2_13_0" dir="r" state="M"/>
    <connection from="E1" to="E6" fromLane="0" toLane="0" via=":J2_14_0" dir="s" state="M"/>
    <connection from="E1" to="E6" fromLane="1" toLane="1" via=":J2_14_1" dir="s" state="M"/>
    <connection from="E1" to="E10" fromLane="1" toLane="1" via=":J2_16_0" dir="l" state="m"/>

    <connection from=":J1_0" to="-E0" fromLane="0" toLane="0" dir="r" state="M"/>
    <connection from=":J1_1" to="E7" fromLane="0" toLane="0" dir="s" state="M"/>
    <connection from=":J1_1" to="E7" fromLane="1" toLane="1" dir="s" state="M"/>
    <connection from=":J1_3" to="E1" fromLane="0" toLane="1" via=":J1_17_0" dir="l" state="m"/>
    <connection from=":J1_17" to="E1" fromLane="0" toLane="1" dir="l" state="M"/>
    <connection from=":J1_4" to="E8" fromLane="0" toLane="0" dir="r" state="M"/>
    <connection from=":J1_5" to="-E0" fromLane="0" toLane="0" dir="s" state="M"/>
    <connection from=":J1_5" to="-E0" fromLane="1" toLane="1" dir="s" state="M"/>
    <connection from=":J1_5" to="-E0" fromLane="2" toLane="2" dir="s" state="M"/>
    <connection from=":J1_8" to="E7" fromLane="0" toLane="1" dir="l" state="M"/>
    <connection from=":J1_9" to="E1" fromLane="0" toLane="0" dir="r" state="M"/>
    <connection from=":J1_10" to="E8" fromLane="0" toLane="0" dir="s" state="M"/>
    <connection from=":J1_10" to="E8" fromLane="1" toLane="1" dir="s" state="M"/>
    <connection from=":J1_12" to="-E0" fromLane="0" toLane="2" via=":J1_18_0" dir="l" state="m"/>
    <connection from=":J1_18" to="-E0" fromLane="0" toLane="2" dir="l" state="M"/>
    <connection from=":J1_13" to="E7" fromLane="0" toLane="0" dir="r" state="M"/>
    <connection from=":J1_14" to="E1" fromLane="0" toLane="0" dir="s" state="M"/>
    <connection from=":J1_14" to="E1" fromLane="1" toLane="1" dir="s" state="M"/>
    <connection from=":J1_16" to="E8" fromLane="0" toLane="1" dir="l" state="M"/>
    <connection from=":J2_0" to="-E1" fromLane="0" toLane="0" dir="r" state="M"/>
    <connection from=":J2_1" to="E9" fromLane="0" toLane="0" dir="s" state="M"/>
    <connection from=":J2_1" to="E9" fromLane="1" toLane="1" dir="s" state="M"/>
    <connection from=":J2_3" to="E6" fromLane="0" toLane="1" dir="l" state="M"/>
    <connection from=":J2_4" to="E10" fromLane="0" toLane="0" dir="r" state="M"/>
    <connection from=":J2_5" to="-E1" fromLane="0" toLane="0" dir="s" state="M"/>
    <connection from=":J2_5" to="-E1" fromLane="1" toLane="1" dir="s" state="M"/>
    <connection from=":J2_5" to="-E1" fromLane="2" toLane="2" dir="s" state="M"/>
    <connection from=":J2_8" to="E9" fromLane="0" toLane="1" via=":J2_17_0" dir="l" state="m"/>
    <connection from=":J2_17" to="E9" fromLane="0" toLane="1" dir="l" state="M"/>
    <connection from=":J2_9" to="E6" fromLane="0" toLane="0" dir="r" state="M"/>
    <connection from=":J2_10" to="E10" fromLane="0" toLane="0" dir="s" state="M"/>
    <connection from=":J2_10" to="E10" fromLane="1" toLane="1" dir="s" state="M"/>
    <connection from=":J2_12" to="-E1" fromLane="0" toLane="2" dir="l" state="M"/>
    <connection from=":J2_13" to="E9" fromLane="0" toLane="0" dir="r" state="M"/>
    <connection from=":J2_14" to="E6" fromLane="0" toLane="0" dir="s" state="M"/>
    <connection from=":J2_14" to="E6" fromLane="1" toLane="1" dir="s" state="M"/>
    <connection from=":J2_16" to="E10" fromLane="0" toLane="1" via=":J2_18_0" dir="l" state="m"/>
    <connection from=":J2_18" to="E10" fromLane="0" toLane="1" dir="l" state="M"/>

</net>
